---- qbsp / ericw-tools v0.18.1-32-g6660c5f ----
Input file: ../../30th_static_fiend/30th_fiend_metal1.map
Output file: ../../30th_static_fiend/30th_fiend_metal1.bsp

---- LoadMapFile ----
*** WARNING 06: No info_player_deathmatch entities in level
        11465 faces
         1974 brushes
          226 entities
          119 unique texnames
         1374 texinfo

Opened WAD: ../../30th_static_fiend/Textures/quake101.wad
Opened WAD: ../../30th_static_fiend/Textures/ikbase.wad
Opened WAD: ../../30th_static_fiend/Textures/ikblue.wad
Opened WAD: ../../30th_static_fiend/Textures/hipnotic.wad
Opened WAD: ../../30th_static_fiend/Textures/knave.wad
Opened WAD: ../../30th_static_fiend/Textures/rogue.wad
Opened WAD: ../../30th_static_fiend/Textures/rubicon.wad
Opened WAD: ../../30th_static_fiend/Textures/utilsmall.wad
Processing hull 0...
---- Brush_LoadEntity ----
         1902 brushes
           31 detail
         1301 planes
---- CSGFaces ----
        11217 brushfaces
         8718 csgfaces
         7700 mergedfaces
---- SolidBSP ----
         9839 split nodes
         3763 solid leafs
         5857 empty leafs
          167 water leafs
           53 detail leafs
            0 detail illusionary leafs
            0 detail fence leafs
            0 illusionary visblocker leafs
        16985 leaffaces
        15714 nodefaces
---- Portalize ----
         6077 vis leafs
         6077 vis clusters
        18013 vis portals
---- FillOutside ----
         3578 outleafs
---- MergeAll ----
         4373 mergefaces
---- SolidBSP ----
         2167 split nodes
         1053 solid leafs
         1071 empty leafs
           10 water leafs
           34 detail leafs
            0 detail illusionary leafs
            0 detail fence leafs
            0 illusionary visblocker leafs
         6750 leaffaces
         5235 nodefaces
---- Portalize ----
         1081 vis leafs
         1028 vis clusters
         2744 vis portals
---- Tjunc ----
         5464 world edges
        18250 edge points
         4144 edges added by tjunctions
            0 faces added by tjunctions
---- MakeFaceEdges ----
---- GrowRegions ----
Processing hull 1...
Processing hull 2...
---- WriteBSPFile ----
Wrote ../../30th_static_fiend/30th_fiend_metal1.bsp
         1734 planes            34680
         6876 vertexes          82512
         2296 nodes             55104
          819 texinfo           32760
         5223 faces            104460
         3352 clipnodes         26816
         1206 leafs             33768
         6705 marksurfaces      13410
        24845 surfedges         99380
        12430 edges             49720
          133 textures        1028236
              lightdata             0
              visdata               0
              entdata           14528

0.491 seconds elapsed
Peak memory usage: 74736614 (71.3M)
