---- qbsp / ericw-tools v0.18.1-32-g6660c5f ----
Input file: ../../30th_static_fiend/30th_fiend_metal1.map
Output file: ../../30th_static_fiend/30th_fiend_metal1.bsp

---- LoadMapFile ----
*** WARNING 06: No info_player_deathmatch entities in level
         8654 faces
         1490 brushes
          174 entities
          111 unique texnames
         1071 texinfo

Opened WAD: ../../30th_static_fiend/Textures/quake101.wad
Opened WAD: ../../30th_static_fiend/Textures/ikbase.wad
Opened WAD: ../../30th_static_fiend/Textures/ikblue.wad
Opened WAD: ../../30th_static_fiend/Textures/hipnotic.wad
Opened WAD: ../../30th_static_fiend/Textures/knave.wad
Opened WAD: ../../30th_static_fiend/Textures/rogue.wad
Opened WAD: ../../30th_static_fiend/Textures/rubicon.wad
Opened WAD: ../../30th_static_fiend/Textures/utilsmall.wad
Processing hull 0...
---- Brush_LoadEntity ----
         1441 brushes
           31 detail
         1034 planes
---- CSGFaces ----
         8542 brushfaces
         6695 csgfaces
         6017 mergedfaces
---- SolidBSP ----
         7047 split nodes
         2679 solid leafs
         4222 empty leafs
          103 water leafs
           44 detail leafs
            0 detail illusionary leafs
            0 detail fence leafs
            0 illusionary visblocker leafs
        12550 leaffaces
        11673 nodefaces
---- Portalize ----
         4369 vis leafs
         4369 vis clusters
        12625 vis portals
---- FillOutside ----
         2663 outleafs
---- MergeAll ----
         3452 mergefaces
---- SolidBSP ----
         1662 split nodes
          818 solid leafs
          803 empty leafs
           11 water leafs
           31 detail leafs
            0 detail illusionary leafs
            0 detail fence leafs
            0 illusionary visblocker leafs
         5176 leaffaces
         4104 nodefaces
---- Portalize ----
          814 vis leafs
          763 vis clusters
         1926 vis portals
---- Tjunc ----
         4191 world edges
        14123 edge points
         3258 edges added by tjunctions
            0 faces added by tjunctions
---- MakeFaceEdges ----
---- GrowRegions ----
Processing hull 1...
Processing hull 2...
---- WriteBSPFile ----
Wrote ../../30th_static_fiend/30th_fiend_metal1.bsp
         1415 planes            28300
         5312 vertexes          63744
         1761 nodes             42264
          654 texinfo           26160
         4067 faces             81340
         2482 clipnodes         19856
          909 leafs             25452
         5109 marksurfaces      10218
        19340 surfedges         77360
         9671 edges             38684
          125 textures         983684
              lightdata             0
              visdata               0
              entdata           11259

0.338 seconds elapsed
Peak memory usage: 46181686 (44.0M)
