---- qbsp / ericw-tools v0.18.1-32-g6660c5f ----
Input file: ../../30th_static_fiend/30th_fiend_metal1.map
Output file: ../../30th_static_fiend/30th_fiend_metal1.bsp

---- LoadMapFile ----
        13382 faces
         2270 brushes
          361 entities
          114 unique texnames
         1836 texinfo

Opened WAD: ../../30th_static_fiend/Textures/quake101.wad
Opened WAD: ../../30th_static_fiend/Textures/ikbase.wad
Opened WAD: ../../30th_static_fiend/Textures/ikblue.wad
Opened WAD: ../../30th_static_fiend/Textures/hipnotic.wad
Opened WAD: ../../30th_static_fiend/Textures/knave.wad
Opened WAD: ../../30th_static_fiend/Textures/rogue.wad
Opened WAD: ../../30th_static_fiend/Textures/rubicon.wad
Opened WAD: ../../30th_static_fiend/Textures/utilsmall.wad
Processing hull 0...
---- Brush_LoadEntity ----
         2182 brushes
           35 detail
         1411 planes
---- CSGFaces ----
        13058 brushfaces
        10387 csgfaces
         8901 mergedfaces
---- SolidBSP ----
        11138 split nodes
         4430 solid leafs
         6517 empty leafs
          141 water leafs
           51 detail leafs
            0 detail illusionary leafs
            0 detail fence leafs
            0 illusionary visblocker leafs
        19798 leaffaces
        18156 nodefaces
---- Portalize ----
         6709 vis leafs
         6709 vis clusters
        20530 vis portals
---- FillOutside ----
         3643 outleafs
---- MergeAll ----
         5592 mergefaces
---- SolidBSP ----
         2940 split nodes
         1392 solid leafs
         1445 empty leafs
           61 water leafs
           43 detail leafs
            0 detail illusionary leafs
            0 detail fence leafs
            0 illusionary visblocker leafs
         8797 leaffaces
         6738 nodefaces
---- Portalize ----
         1506 vis leafs
         1443 vis clusters
         4036 vis portals
---- Tjunc ----
         6686 world edges
        23203 edge points
         5597 edges added by tjunctions
            0 faces added by tjunctions
---- MakeFaceEdges ----
---- GrowRegions ----
Processing hull 1...
Processing hull 2...
---- WriteBSPFile ----
Wrote ../../30th_static_fiend/30th_fiend_metal1.bsp
         2106 planes            42120
         8908 vertexes         106896
         3165 nodes             75960
         1073 texinfo           42920
         6779 faces            135580
         4770 clipnodes         38160
         1722 leafs             48216
         8800 marksurfaces      17600
        32538 surfedges        130152
        16272 edges             65088
          131 textures         984288
              lightdata             0
              visdata               0
              entdata           24862

0.610 seconds elapsed
Peak memory usage: 72675432 (69.3M)
