---- qbsp / ericw-tools v0.18.1-32-g6660c5f ----
Input file: ../../30th_static_fiend/30th_fiend_metal1.map
Output file: ../../30th_static_fiend/30th_fiend_metal1.bsp

---- LoadMapFile ----
*** WARNING 06: No info_player_deathmatch entities in level
         9838 faces
         1698 brushes
          195 entities
          113 unique texnames
         1181 texinfo

Opened WAD: ../../30th_static_fiend/Textures/quake101.wad
Opened WAD: ../../30th_static_fiend/Textures/ikbase.wad
Opened WAD: ../../30th_static_fiend/Textures/ikblue.wad
Opened WAD: ../../30th_static_fiend/Textures/hipnotic.wad
Opened WAD: ../../30th_static_fiend/Textures/knave.wad
Opened WAD: ../../30th_static_fiend/Textures/rogue.wad
Opened WAD: ../../30th_static_fiend/Textures/rubicon.wad
Opened WAD: ../../30th_static_fiend/Textures/utilsmall.wad
Processing hull 0...
---- Brush_LoadEntity ----
         1634 brushes
           31 detail
         1164 planes
---- CSGFaces ----
         9637 brushfaces
         7554 csgfaces
         6773 mergedfaces
---- SolidBSP ----
         8275 split nodes
         3158 solid leafs
         4950 empty leafs
          114 water leafs
           54 detail leafs
            0 detail illusionary leafs
            0 detail fence leafs
            0 illusionary visblocker leafs
        14501 leaffaces
        13455 nodefaces
---- Portalize ----
         5118 vis leafs
         5118 vis clusters
        14919 vis portals
---- FillOutside ----
         3059 outleafs
---- MergeAll ----
         3820 mergefaces
---- SolidBSP ----
         1891 split nodes
          936 solid leafs
          912 empty leafs
           11 water leafs
           33 detail leafs
            0 detail illusionary leafs
            0 detail fence leafs
            0 illusionary visblocker leafs
         5780 leaffaces
         4548 nodefaces
---- Portalize ----
          923 vis leafs
          872 vis clusters
         2210 vis portals
---- Tjunc ----
         4765 world edges
        15778 edge points
         3559 edges added by tjunctions
            0 faces added by tjunctions
---- MakeFaceEdges ----
---- GrowRegions ----
Processing hull 1...
Processing hull 2...
---- WriteBSPFile ----
Wrote ../../30th_static_fiend/30th_fiend_metal1.bsp
         1523 planes            30460
         5894 vertexes          70728
         1989 nodes             47736
          707 texinfo           28280
         4508 faces             90160
         2667 clipnodes         21336
         1018 leafs             28504
         5705 marksurfaces      11410
        21399 surfedges         85596
        10703 edges             42812
          127 textures        1005532
              lightdata             0
              visdata               0
              entdata           12394

0.394 seconds elapsed
Peak memory usage: 51689534 (49.3M)
