---- qbsp / ericw-tools v0.18.1-32-g6660c5f ----
Input file: ../../30th_static_fiend/30th_fiend_metal1.map
Output file: ../../30th_static_fiend/30th_fiend_metal1.bsp

---- LoadMapFile ----
*** WARNING 06: No info_player_deathmatch entities in level
         9598 faces
         1654 brushes
          193 entities
          112 unique texnames
         1137 texinfo

Opened WAD: ../../30th_static_fiend/Textures/quake101.wad
Opened WAD: ../../30th_static_fiend/Textures/ikbase.wad
Opened WAD: ../../30th_static_fiend/Textures/ikblue.wad
Opened WAD: ../../30th_static_fiend/Textures/hipnotic.wad
Opened WAD: ../../30th_static_fiend/Textures/knave.wad
Opened WAD: ../../30th_static_fiend/Textures/rogue.wad
Opened WAD: ../../30th_static_fiend/Textures/rubicon.wad
Opened WAD: ../../30th_static_fiend/Textures/utilsmall.wad
Processing hull 0...
---- Brush_LoadEntity ----
         1590 brushes
           31 detail
         1141 planes
---- CSGFaces ----
         9397 brushfaces
         7378 csgfaces
         6629 mergedfaces
---- SolidBSP ----
         7988 split nodes
         3079 solid leafs
         4762 empty leafs
          104 water leafs
           44 detail leafs
            0 detail illusionary leafs
            0 detail fence leafs
            0 illusionary visblocker leafs
        13988 leaffaces
        13007 nodefaces
---- Portalize ----
         4910 vis leafs
         4910 vis clusters
        14288 vis portals
---- FillOutside ----
         2957 outleafs
---- MergeAll ----
         3790 mergefaces
---- SolidBSP ----
         1887 split nodes
          930 solid leafs
          915 empty leafs
           12 water leafs
           31 detail leafs
            0 detail illusionary leafs
            0 detail fence leafs
            0 illusionary visblocker leafs
         5748 leaffaces
         4521 nodefaces
---- Portalize ----
          927 vis leafs
          876 vis clusters
         2270 vis portals
---- Tjunc ----
         4701 world edges
        15669 edge points
         3557 edges added by tjunctions
            0 faces added by tjunctions
---- MakeFaceEdges ----
---- GrowRegions ----
Processing hull 1...
Processing hull 2...
---- WriteBSPFile ----
Wrote ../../30th_static_fiend/30th_fiend_metal1.bsp
         1494 planes            29880
         5880 vertexes          70560
         1986 nodes             47664
          692 texinfo           27680
         4484 faces             89680
         2635 clipnodes         21080
         1022 leafs             28616
         5681 marksurfaces      11362
        21295 surfedges         85180
        10651 edges             42604
          126 textures        1000048
              lightdata             0
              visdata               0
              entdata           12266

0.390 seconds elapsed
Peak memory usage: 51295226 (48.9M)
