---- qbsp / ericw-tools v0.18.1-32-g6660c5f ----
Input file: ../../30th_static_fiend/30th_fiend_metal1.map
Output file: ../../30th_static_fiend/30th_fiend_metal1.bsp

---- LoadMapFile ----
*** WARNING 06: No info_player_deathmatch entities in level
        10470 faces
         1809 brushes
          218 entities
          115 unique texnames
         1283 texinfo

Opened WAD: ../../30th_static_fiend/Textures/quake101.wad
Opened WAD: ../../30th_static_fiend/Textures/ikbase.wad
Opened WAD: ../../30th_static_fiend/Textures/ikblue.wad
Opened WAD: ../../30th_static_fiend/Textures/hipnotic.wad
Opened WAD: ../../30th_static_fiend/Textures/knave.wad
Opened WAD: ../../30th_static_fiend/Textures/rogue.wad
Opened WAD: ../../30th_static_fiend/Textures/rubicon.wad
Opened WAD: ../../30th_static_fiend/Textures/utilsmall.wad
Processing hull 0...
---- Brush_LoadEntity ----
         1738 brushes
           31 detail
         1230 planes
---- CSGFaces ----
        10228 brushfaces
         8011 csgfaces
         7187 mergedfaces
---- SolidBSP ----
         9101 split nodes
         3457 solid leafs
         5433 empty leafs
          159 water leafs
           53 detail leafs
            0 detail illusionary leafs
            0 detail fence leafs
            0 illusionary visblocker leafs
        15683 leaffaces
        14556 nodefaces
---- Portalize ----
         5645 vis leafs
         5645 vis clusters
        16625 vis portals
---- FillOutside ----
         3416 outleafs
---- MergeAll ----
         4038 mergefaces
---- SolidBSP ----
         1953 split nodes
          964 solid leafs
          946 empty leafs
           10 water leafs
           34 detail leafs
            0 detail illusionary leafs
            0 detail fence leafs
            0 illusionary visblocker leafs
         6113 leaffaces
         4805 nodefaces
---- Portalize ----
          956 vis leafs
          903 vis clusters
         2297 vis portals
---- Tjunc ----
         5040 world edges
        16686 edge points
         3752 edges added by tjunctions
            0 faces added by tjunctions
---- MakeFaceEdges ----
---- GrowRegions ----
Processing hull 1...
Processing hull 2...
---- WriteBSPFile ----
Wrote ../../30th_static_fiend/30th_fiend_metal1.bsp
         1633 planes            32660
         6253 vertexes          75036
         2076 nodes             49824
          748 texinfo           29920
         4783 faces             95660
         2912 clipnodes         23296
         1075 leafs             30100
         6058 marksurfaces      12116
        22673 surfedges         90692
        11344 edges             45376
          129 textures        1006300
              lightdata             0
              visdata               0
              entdata           13962

0.443 seconds elapsed
Peak memory usage: 69526320 (66.3M)
