---- qbsp / ericw-tools v0.18.1-32-g6660c5f ----
Input file: ../../30th_static_fiend/30th_fiend_metal1.map
Output file: ../../30th_static_fiend/30th_fiend_metal1.bsp

---- LoadMapFile ----
        13644 faces
         2342 brushes
          343 entities
          120 unique texnames
         1572 texinfo

Opened WAD: ../../30th_static_fiend/Textures/quake101.wad
Opened WAD: ../../30th_static_fiend/Textures/ikbase.wad
Opened WAD: ../../30th_static_fiend/Textures/ikblue.wad
Opened WAD: ../../30th_static_fiend/Textures/hipnotic.wad
Opened WAD: ../../30th_static_fiend/Textures/knave.wad
Opened WAD: ../../30th_static_fiend/Textures/rogue.wad
Opened WAD: ../../30th_static_fiend/Textures/rubicon.wad
Opened WAD: ../../30th_static_fiend/Textures/utilsmall.wad
Processing hull 0...
---- Brush_LoadEntity ----
         2255 brushes
           31 detail
         1498 planes
---- CSGFaces ----
        13306 brushfaces
        10442 csgfaces
         9198 mergedfaces
---- SolidBSP ----
        11458 split nodes
         4496 solid leafs
         6758 empty leafs
          152 water leafs
           53 detail leafs
            0 detail illusionary leafs
            0 detail fence leafs
            0 illusionary visblocker leafs
        19806 leaffaces
        18233 nodefaces
---- Portalize ----
         6963 vis leafs
         6963 vis clusters
        20611 vis portals
---- FillOutside ----
         4024 outleafs
---- MergeAll ----
         5471 mergefaces
---- SolidBSP ----
         2696 split nodes
         1334 solid leafs
         1300 empty leafs
           24 water leafs
           39 detail leafs
            0 detail illusionary leafs
            0 detail fence leafs
            0 illusionary visblocker leafs
         8355 leaffaces
         6494 nodefaces
---- Portalize ----
         1324 vis leafs
         1269 vis clusters
         3382 vis portals
---- Tjunc ----
         6817 world edges
        22841 edge points
         5133 edges added by tjunctions
            0 faces added by tjunctions
---- MakeFaceEdges ----
---- GrowRegions ----
Processing hull 1...
Processing hull 2...
---- WriteBSPFile ----
Wrote ../../30th_static_fiend/30th_fiend_metal1.bsp
         2056 planes            41120
         8625 vertexes         103500
         2915 nodes             69960
          949 texinfo           37960
         6567 faces            131340
         4095 clipnodes         32760
         1539 leafs             43092
         8390 marksurfaces      16780
        31237 surfedges        124948
        15626 edges             62504
          138 textures        1035256
              lightdata             0
              visdata               0
              entdata           23186

0.646 seconds elapsed
Peak memory usage: 72706632 (69.3M)
