---- qbsp / ericw-tools v0.18.1-32-g6660c5f ----
Input file: ../../30th_static_fiend/30th_fiend_metal1.map
Output file: ../../30th_static_fiend/30th_fiend_metal1.bsp

---- LoadMapFile ----
        13062 faces
         2232 brushes
          335 entities
          115 unique texnames
         1716 texinfo

Opened WAD: ../../30th_static_fiend/Textures/quake101.wad
Opened WAD: ../../30th_static_fiend/Textures/ikbase.wad
Opened WAD: ../../30th_static_fiend/Textures/ikblue.wad
Opened WAD: ../../30th_static_fiend/Textures/hipnotic.wad
Opened WAD: ../../30th_static_fiend/Textures/knave.wad
Opened WAD: ../../30th_static_fiend/Textures/rogue.wad
Opened WAD: ../../30th_static_fiend/Textures/rubicon.wad
Opened WAD: ../../30th_static_fiend/Textures/utilsmall.wad
Processing hull 0...
---- Brush_LoadEntity ----
         2146 brushes
           31 detail
         1345 planes
---- CSGFaces ----
        12725 brushfaces
         9958 csgfaces
         8592 mergedfaces
---- SolidBSP ----
        10823 split nodes
         4361 solid leafs
         6356 empty leafs
           62 water leafs
           45 detail leafs
            0 detail illusionary leafs
            0 detail fence leafs
            0 illusionary visblocker leafs
        18965 leaffaces
        17323 nodefaces
---- Portalize ----
         6463 vis leafs
         6463 vis clusters
        19624 vis portals
---- FillOutside ----
         3634 outleafs
---- MergeAll ----
         5299 mergefaces
---- SolidBSP ----
         2704 split nodes
         1320 solid leafs
         1327 empty leafs
           19 water leafs
           39 detail leafs
            0 detail illusionary leafs
            0 detail fence leafs
            0 illusionary visblocker leafs
         8233 leaffaces
         6241 nodefaces
---- Portalize ----
         1346 vis leafs
         1294 vis clusters
         3519 vis portals
---- Tjunc ----
         6520 world edges
        22148 edge points
         5119 edges added by tjunctions
            0 faces added by tjunctions
---- MakeFaceEdges ----
---- GrowRegions ----
Processing hull 1...
Processing hull 2...
---- WriteBSPFile ----
Wrote ../../30th_static_fiend/30th_fiend_metal1.bsp
         1911 planes            38220
         8448 vertexes         101376
         2942 nodes             70608
         1038 texinfo           41520
         6330 faces            126600
         4407 clipnodes         35256
         1575 leafs             44100
         8283 marksurfaces      16566
        30368 surfedges        121472
        15188 edges             60752
          136 textures         991308
              lightdata             0
              visdata               0
              entdata           23404

0.574 seconds elapsed
Peak memory usage: 70254790 (67.0M)
