---- qbsp / ericw-tools v0.18.1-32-g6660c5f ----
Input file: ../../30th_static_fiend/30th_fiend_metal1.map
Output file: ../../30th_static_fiend/30th_fiend_metal1.bsp

---- LoadMapFile ----
*** WARNING 06: No info_player_deathmatch entities in level
        11003 faces
         1898 brushes
          220 entities
          117 unique texnames
         1337 texinfo

Opened WAD: ../../30th_static_fiend/Textures/quake101.wad
Opened WAD: ../../30th_static_fiend/Textures/ikbase.wad
Opened WAD: ../../30th_static_fiend/Textures/ikblue.wad
Opened WAD: ../../30th_static_fiend/Textures/hipnotic.wad
Opened WAD: ../../30th_static_fiend/Textures/knave.wad
Opened WAD: ../../30th_static_fiend/Textures/rogue.wad
Opened WAD: ../../30th_static_fiend/Textures/rubicon.wad
Opened WAD: ../../30th_static_fiend/Textures/utilsmall.wad
Processing hull 0...
---- Brush_LoadEntity ----
         1827 brushes
           31 detail
         1261 planes
---- CSGFaces ----
        10761 brushfaces
         8382 csgfaces
         7487 mergedfaces
---- SolidBSP ----
         9519 split nodes
         3629 solid leafs
         5672 empty leafs
          166 water leafs
           53 detail leafs
            0 detail illusionary leafs
            0 detail fence leafs
            0 illusionary visblocker leafs
        16454 leaffaces
        15238 nodefaces
---- Portalize ----
         5891 vis leafs
         5891 vis clusters
        17468 vis portals
---- FillOutside ----
         3500 outleafs
---- MergeAll ----
         4221 mergefaces
---- SolidBSP ----
         2080 split nodes
         1010 solid leafs
         1027 empty leafs
           10 water leafs
           34 detail leafs
            0 detail illusionary leafs
            0 detail fence leafs
            0 illusionary visblocker leafs
         6481 leaffaces
         5068 nodefaces
---- Portalize ----
         1037 vis leafs
          984 vis clusters
         2613 vis portals
---- Tjunc ----
         5268 world edges
        17614 edge points
         3964 edges added by tjunctions
            0 faces added by tjunctions
---- MakeFaceEdges ----
---- GrowRegions ----
Processing hull 1...
Processing hull 2...
---- WriteBSPFile ----
Wrote ../../30th_static_fiend/30th_fiend_metal1.bsp
         1662 planes            33240
         6625 vertexes          79500
         2203 nodes             52872
          784 texinfo           31360
         5050 faces            101000
         3234 clipnodes         25872
         1156 leafs             32368
         6430 marksurfaces      12860
        23985 surfedges         95940
        12000 edges             48000
          131 textures        1017268
              lightdata             0
              visdata               0
              entdata           14076

0.478 seconds elapsed
Peak memory usage: 72661880 (69.3M)
