---- qbsp / ericw-tools v0.18.1-32-g6660c5f ----
Input file: ../../30th_static_fiend/30th_fiend_metal1.map
Output file: ../../30th_static_fiend/30th_fiend_metal1.bsp

---- LoadMapFile ----
*** WARNING 06: No info_player_deathmatch entities in level
        12008 faces
         2065 brushes
          229 entities
          119 unique texnames
         1417 texinfo

Opened WAD: ../../30th_static_fiend/Textures/quake101.wad
Opened WAD: ../../30th_static_fiend/Textures/ikbase.wad
Opened WAD: ../../30th_static_fiend/Textures/ikblue.wad
Opened WAD: ../../30th_static_fiend/Textures/hipnotic.wad
Opened WAD: ../../30th_static_fiend/Textures/knave.wad
Opened WAD: ../../30th_static_fiend/Textures/rogue.wad
Opened WAD: ../../30th_static_fiend/Textures/rubicon.wad
Opened WAD: ../../30th_static_fiend/Textures/utilsmall.wad
Processing hull 0...
---- Brush_LoadEntity ----
         1993 brushes
           31 detail
         1316 planes
---- CSGFaces ----
        11760 brushfaces
         9105 csgfaces
         8042 mergedfaces
---- SolidBSP ----
        10180 split nodes
         3917 solid leafs
         6044 empty leafs
          167 water leafs
           53 detail leafs
            0 detail illusionary leafs
            0 detail fence leafs
            0 illusionary visblocker leafs
        17686 leaffaces
        16370 nodefaces
---- Portalize ----
         6264 vis leafs
         6264 vis clusters
        18551 vis portals
---- FillOutside ----
         3669 outleafs
---- MergeAll ----
         4598 mergefaces
---- SolidBSP ----
         2318 split nodes
         1127 solid leafs
         1148 empty leafs
           10 water leafs
           34 detail leafs
            0 detail illusionary leafs
            0 detail fence leafs
            0 illusionary visblocker leafs
         7144 leaffaces
         5564 nodefaces
---- Portalize ----
         1158 vis leafs
         1105 vis clusters
         2988 vis portals
---- Tjunc ----
         5697 world edges
        19342 edge points
         4382 edges added by tjunctions
            0 faces added by tjunctions
---- MakeFaceEdges ----
---- GrowRegions ----
Processing hull 1...
Processing hull 2...
---- WriteBSPFile ----
Wrote ../../30th_static_fiend/30th_fiend_metal1.bsp
         1767 planes            35340
         7304 vertexes          87648
         2447 nodes             58728
          846 texinfo           33840
         5552 faces            111040
         3439 clipnodes         27512
         1283 leafs             35924
         7099 marksurfaces      14198
        26409 surfedges        105636
        13212 edges             52848
          133 textures        1028236
              lightdata             0
              visdata               0
              entdata           14721

0.547 seconds elapsed
Peak memory usage: 77809618 (74.2M)
