---- qbsp / ericw-tools v0.18.1-32-g6660c5f ----
Input file: ../../30th_static_fiend/mc_q30th_static_fiend.map
Output file: ../../30th_static_fiend/mc_q30th_static_fiend.bsp

---- LoadMapFile ----
        15961 faces
         2702 brushes
          495 entities
          116 unique texnames
         2019 texinfo

Opened WAD: ../../30th_static_fiend/Textures/quake101.wad
Opened WAD: ../../30th_static_fiend/Textures/ikbase.wad
Opened WAD: ../../30th_static_fiend/Textures/ikblue.wad
Opened WAD: ../../30th_static_fiend/Textures/hipnotic.wad
Opened WAD: ../../30th_static_fiend/Textures/knave.wad
Opened WAD: ../../30th_static_fiend/Textures/rogue.wad
Opened WAD: ../../30th_static_fiend/Textures/rubicon.wad
Opened WAD: ../../30th_static_fiend/Textures/utilsmall.wad
Processing hull 0...
---- Brush_LoadEntity ----
         2496 brushes
          108 detail
         1654 planes
---- CSGFaces ----
        15366 brushfaces
        12109 csgfaces
        10575 mergedfaces
---- SolidBSP ----
        12603 split nodes
         4848 solid leafs
         7379 empty leafs
          183 water leafs
          194 detail leafs
            0 detail illusionary leafs
            0 detail fence leafs
            0 illusionary visblocker leafs
        23202 leaffaces
        21063 nodefaces
---- Portalize ----
         7756 vis leafs
         7756 vis clusters
        24362 vis portals
---- FillOutside ----
         4003 outleafs
---- MergeAll ----
         6895 mergefaces
---- SolidBSP ----
         3609 split nodes
         1606 solid leafs
         1805 empty leafs
           65 water leafs
          134 detail leafs
            0 detail illusionary leafs
            0 detail fence leafs
            0 illusionary visblocker leafs
        10787 leaffaces
         8362 nodefaces
---- Portalize ----
         1870 vis leafs
         1670 vis clusters
         4963 vis portals
---- Tjunc ----
         7952 world edges
        27469 edge points
         6864 edges added by tjunctions
            0 faces added by tjunctions
---- MakeFaceEdges ----
---- GrowRegions ----
Processing hull 1...
Processing hull 2...
---- WriteBSPFile ----
Wrote ../../30th_static_fiend/mc_q30th_static_fiend.bsp
         2511 planes            50220
        10768 vertexes         129216
         4048 nodes             97152
         1205 texinfo           48200
         8169 faces            163380
         5945 clipnodes         47560
         2305 leafs             64540
        10499 marksurfaces      20998
        38950 surfedges        155800
        19478 edges             77912
          133 textures        1076856
              lightdata             0
              visdata               0
              entdata           35705

0.811 seconds elapsed
Peak memory usage: 84593106 (80.7M)
