---- qbsp / ericw-tools v0.18.1-32-g6660c5f ----
Input file: ../../30th_static_fiend/mc_q30th_static_fiend.map
Output file: ../../30th_static_fiend/mc_q30th_static_fiend.bsp

---- LoadMapFile ----
        15989 faces
         2706 brushes
          496 entities
          117 unique texnames
         2029 texinfo

Opened WAD: ../../30th_static_fiend/Textures/quake101.wad
Opened WAD: ../../30th_static_fiend/Textures/ikbase.wad
Opened WAD: ../../30th_static_fiend/Textures/ikblue.wad
Opened WAD: ../../30th_static_fiend/Textures/hipnotic.wad
Opened WAD: ../../30th_static_fiend/Textures/knave.wad
Opened WAD: ../../30th_static_fiend/Textures/rogue.wad
Opened WAD: ../../30th_static_fiend/Textures/rubicon.wad
Opened WAD: ../../30th_static_fiend/Textures/utilsmall.wad
Processing hull 0...
---- Brush_LoadEntity ----
         2500 brushes
          108 detail
         1657 planes
---- CSGFaces ----
        15394 brushfaces
        12135 csgfaces
        10581 mergedfaces
---- SolidBSP ----
        12622 split nodes
         4856 solid leafs
         7390 empty leafs
          183 water leafs
          194 detail leafs
            0 detail illusionary leafs
            0 detail fence leafs
            0 illusionary visblocker leafs
        23222 leaffaces
        21083 nodefaces
---- Portalize ----
         7767 vis leafs
         7767 vis clusters
        24387 vis portals
---- FillOutside ----
         4010 outleafs
---- MergeAll ----
         6905 mergefaces
---- SolidBSP ----
         3616 split nodes
         1609 solid leafs
         1809 empty leafs
           65 water leafs
          134 detail leafs
            0 detail illusionary leafs
            0 detail fence leafs
            0 illusionary visblocker leafs
        10794 leaffaces
         8369 nodefaces
---- Portalize ----
         1874 vis leafs
         1674 vis clusters
         4971 vis portals
---- Tjunc ----
         7966 world edges
        27501 edge points
         6870 edges added by tjunctions
            0 faces added by tjunctions
---- MakeFaceEdges ----
---- GrowRegions ----
Processing hull 1...
Processing hull 2...
---- WriteBSPFile ----
Wrote ../../30th_static_fiend/mc_q30th_static_fiend.bsp
         2513 planes            50260
        10778 vertexes         129336
         4055 nodes             97320
         1209 texinfo           48360
         8176 faces            163520
         5945 clipnodes         47560
         2309 leafs             64652
        10506 marksurfaces      21012
        38984 surfedges        155936
        19495 edges             77980
          134 textures        1082340
              lightdata             0
              visdata               0
              entdata           35778

0.787 seconds elapsed
Peak memory usage: 84688676 (80.8M)
