---- qbsp / ericw-tools v0.18.1-32-g6660c5f ----
Input file: ../../30th_static_fiend/mc_q30th_static_fiend.map
Output file: ../../30th_static_fiend/mc_q30th_static_fiend.bsp

---- LoadMapFile ----
        16001 faces
         2708 brushes
          493 entities
          117 unique texnames
         2031 texinfo

Opened WAD: ../../30th_static_fiend/Textures/quake101.wad
Opened WAD: ../../30th_static_fiend/Textures/ikbase.wad
Opened WAD: ../../30th_static_fiend/Textures/ikblue.wad
Opened WAD: ../../30th_static_fiend/Textures/hipnotic.wad
Opened WAD: ../../30th_static_fiend/Textures/knave.wad
Opened WAD: ../../30th_static_fiend/Textures/rogue.wad
Opened WAD: ../../30th_static_fiend/Textures/rubicon.wad
Opened WAD: ../../30th_static_fiend/Textures/utilsmall.wad
Processing hull 0...
---- Brush_LoadEntity ----
         2502 brushes
          108 detail
         1674 planes
---- CSGFaces ----
        15406 brushfaces
        12197 csgfaces
        10649 mergedfaces
---- SolidBSP ----
        12915 split nodes
         4953 solid leafs
         7585 empty leafs
          183 water leafs
          195 detail leafs
            0 detail illusionary leafs
            0 detail fence leafs
            0 illusionary visblocker leafs
        23596 leaffaces
        21489 nodefaces
---- Portalize ----
         7963 vis leafs
         7963 vis clusters
        25113 vis portals
---- FillOutside ----
         4131 outleafs
---- MergeAll ----
         6920 mergefaces
---- SolidBSP ----
         3604 split nodes
         1611 solid leafs
         1798 empty leafs
           65 water leafs
          131 detail leafs
            0 detail illusionary leafs
            0 detail fence leafs
            0 illusionary visblocker leafs
        10761 leaffaces
         8376 nodefaces
---- Portalize ----
         1863 vis leafs
         1663 vis clusters
         4929 vis portals
---- Tjunc ----
         7969 world edges
        27572 edge points
         6943 edges added by tjunctions
            0 faces added by tjunctions
---- MakeFaceEdges ----
---- GrowRegions ----
Processing hull 1...
Processing hull 2...
---- WriteBSPFile ----
Wrote ../../30th_static_fiend/mc_q30th_static_fiend.bsp
         2556 planes            51120
        10812 vertexes         129744
         4036 nodes             96864
         1207 texinfo           48280
         8180 faces            163600
         6155 clipnodes         49240
         2292 leafs             64176
        10473 marksurfaces      20946
        39072 surfedges        156288
        19539 edges             78156
          134 textures        1082340
              lightdata             0
              visdata               0
              entdata           35529

0.795 seconds elapsed
Peak memory usage: 85326670 (81.4M)
