---- qbsp / ericw-tools v0.18.1-32-g6660c5f ----
Input file: ../../30th_static_fiend/mc_q30th_static_fiend.map
Output file: ../../30th_static_fiend/mc_q30th_static_fiend.bsp

---- LoadMapFile ----
        15404 faces
         2613 brushes
          473 entities
          116 unique texnames
         1912 texinfo

Opened WAD: ../../30th_static_fiend/Textures/quake101.wad
Opened WAD: ../../30th_static_fiend/Textures/ikbase.wad
Opened WAD: ../../30th_static_fiend/Textures/ikblue.wad
Opened WAD: ../../30th_static_fiend/Textures/hipnotic.wad
Opened WAD: ../../30th_static_fiend/Textures/knave.wad
Opened WAD: ../../30th_static_fiend/Textures/rogue.wad
Opened WAD: ../../30th_static_fiend/Textures/rubicon.wad
Opened WAD: ../../30th_static_fiend/Textures/utilsmall.wad
Processing hull 0...
---- Brush_LoadEntity ----
         2411 brushes
          108 detail
         1579 planes
---- CSGFaces ----
        14833 brushfaces
        11714 csgfaces
        10320 mergedfaces
---- SolidBSP ----
        12165 split nodes
         4680 solid leafs
         7108 empty leafs
          185 water leafs
          193 detail leafs
            0 detail illusionary leafs
            0 detail fence leafs
            0 illusionary visblocker leafs
        22606 leaffaces
        20560 nodefaces
---- Portalize ----
         7486 vis leafs
         7486 vis clusters
        23370 vis portals
---- FillOutside ----
         3880 outleafs
---- MergeAll ----
         6750 mergefaces
---- SolidBSP ----
         3421 split nodes
         1533 solid leafs
         1689 empty leafs
           66 water leafs
          134 detail leafs
            0 detail illusionary leafs
            0 detail fence leafs
            0 illusionary visblocker leafs
        10504 leaffaces
         8157 nodefaces
---- Portalize ----
         1755 vis leafs
         1557 vis clusters
         4481 vis portals
---- Tjunc ----
         7692 world edges
        26775 edge points
         6788 edges added by tjunctions
            0 faces added by tjunctions
---- MakeFaceEdges ----
---- GrowRegions ----
Processing hull 1...
Processing hull 2...
---- WriteBSPFile ----
Wrote ../../30th_static_fiend/mc_q30th_static_fiend.bsp
         2415 planes            48300
        10530 vertexes         126360
         3848 nodes             92352
         1136 texinfo           45440
         7956 faces            159120
         5721 clipnodes         45768
         2178 leafs             60984
        10201 marksurfaces      20402
        38068 surfedges        152272
        19037 edges             76148
          133 textures        1076856
              lightdata             0
              visdata               0
              entdata           34266

0.770 seconds elapsed
Peak memory usage: 81604230 (77.8M)
