---- qbsp / ericw-tools v0.18.1-32-g6660c5f ----
Input file: ../../30th_static_fiend/mc_q30th_static_fiend.map
Output file: ../../30th_static_fiend/mc_q30th_static_fiend.bsp

---- LoadMapFile ----
        15398 faces
         2612 brushes
          494 entities
          116 unique texnames
         1906 texinfo

Opened WAD: ../../30th_static_fiend/Textures/quake101.wad
Opened WAD: ../../30th_static_fiend/Textures/ikbase.wad
Opened WAD: ../../30th_static_fiend/Textures/ikblue.wad
Opened WAD: ../../30th_static_fiend/Textures/hipnotic.wad
Opened WAD: ../../30th_static_fiend/Textures/knave.wad
Opened WAD: ../../30th_static_fiend/Textures/rogue.wad
Opened WAD: ../../30th_static_fiend/Textures/rubicon.wad
Opened WAD: ../../30th_static_fiend/Textures/utilsmall.wad
Processing hull 0...
---- Brush_LoadEntity ----
         2408 brushes
          108 detail
         1572 planes
---- CSGFaces ----
        14815 brushfaces
        11718 csgfaces
        10317 mergedfaces
---- SolidBSP ----
        12212 split nodes
         4708 solid leafs
         7128 empty leafs
          183 water leafs
          194 detail leafs
            0 detail illusionary leafs
            0 detail fence leafs
            0 illusionary visblocker leafs
        22632 leaffaces
        20579 nodefaces
---- Portalize ----
         7505 vis leafs
         7505 vis clusters
        23422 vis portals
---- FillOutside ----
         3901 outleafs
---- MergeAll ----
         6737 mergefaces
---- SolidBSP ----
         3455 split nodes
         1545 solid leafs
         1712 empty leafs
           65 water leafs
          134 detail leafs
            0 detail illusionary leafs
            0 detail fence leafs
            0 illusionary visblocker leafs
        10515 leaffaces
         8152 nodefaces
---- Portalize ----
         1777 vis leafs
         1578 vis clusters
         4579 vis portals
---- Tjunc ----
         7684 world edges
        26743 edge points
         6767 edges added by tjunctions
            0 faces added by tjunctions
---- MakeFaceEdges ----
---- GrowRegions ----
Processing hull 1...
Processing hull 2...
---- WriteBSPFile ----
Wrote ../../30th_static_fiend/mc_q30th_static_fiend.bsp
         2403 planes            48060
        10529 vertexes         126348
         3893 nodes             93432
         1136 texinfo           45440
         7961 faces            159220
         5735 clipnodes         45880
         2212 leafs             61936
        10230 marksurfaces      20460
        38064 surfedges        152256
        19035 edges             76140
          133 textures        1076856
              lightdata             0
              visdata               0
              entdata           35601

0.733 seconds elapsed
Peak memory usage: 81752888 (78.0M)
