---- qbsp / ericw-tools v0.18.1-32-g6660c5f ----
Input file: ../../30th_static_fiend/30th_fiend_metal1.map
Output file: ../../30th_static_fiend/30th_fiend_metal1.bsp

---- LoadMapFile ----
        15110 faces
         2563 brushes
          448 entities
          116 unique texnames
         1906 texinfo

Opened WAD: ../../30th_static_fiend/Textures/quake101.wad
Opened WAD: ../../30th_static_fiend/Textures/ikbase.wad
Opened WAD: ../../30th_static_fiend/Textures/ikblue.wad
Opened WAD: ../../30th_static_fiend/Textures/hipnotic.wad
Opened WAD: ../../30th_static_fiend/Textures/knave.wad
Opened WAD: ../../30th_static_fiend/Textures/rogue.wad
Opened WAD: ../../30th_static_fiend/Textures/rubicon.wad
Opened WAD: ../../30th_static_fiend/Textures/utilsmall.wad
Processing hull 0...
---- Brush_LoadEntity ----
         2378 brushes
          108 detail
         1569 planes
---- CSGFaces ----
        14641 brushfaces
        11630 csgfaces
        10285 mergedfaces
---- SolidBSP ----
        12300 split nodes
         4722 solid leafs
         7201 empty leafs
          189 water leafs
          189 detail leafs
            0 detail illusionary leafs
            0 detail fence leafs
            0 illusionary visblocker leafs
        22625 leaffaces
        20645 nodefaces
---- Portalize ----
         7579 vis leafs
         7579 vis clusters
        23744 vis portals
---- FillOutside ----
         3938 outleafs
---- MergeAll ----
         6720 mergefaces
---- SolidBSP ----
         3493 split nodes
         1578 solid leafs
         1713 empty leafs
           66 water leafs
          137 detail leafs
            0 detail illusionary leafs
            0 detail fence leafs
            0 illusionary visblocker leafs
        10464 leaffaces
         8201 nodefaces
---- Portalize ----
         1779 vis leafs
         1574 vis clusters
         4538 vis portals
---- Tjunc ----
         7683 world edges
        26828 edge points
         6746 edges added by tjunctions
            0 faces added by tjunctions
---- MakeFaceEdges ----
---- GrowRegions ----
Processing hull 1...
Processing hull 2...
---- WriteBSPFile ----
Wrote ../../30th_static_fiend/30th_fiend_metal1.bsp
         2375 planes            47500
        10422 vertexes         125064
         3830 nodes             91920
         1125 texinfo           45000
         7892 faces            157840
         5622 clipnodes         44976
         2116 leafs             59248
        10051 marksurfaces      20102
        37780 surfedges        151120
        18893 edges             75572
          133 textures        1076856
              lightdata             0
              visdata               0
              entdata           31894

0.723 seconds elapsed
Peak memory usage: 81260618 (77.5M)
