---- qbsp / ericw-tools v0.18.1-32-g6660c5f ----
Input file: ../../30th_static_fiend/mc_q30th_static_fiend.map
Output file: ../../30th_static_fiend/mc_q30th_static_fiend.bsp

---- LoadMapFile ----
        16007 faces
         2709 brushes
          493 entities
          117 unique texnames
         2035 texinfo

Opened WAD: ../../30th_static_fiend/Textures/quake101.wad
Opened WAD: ../../30th_static_fiend/Textures/ikbase.wad
Opened WAD: ../../30th_static_fiend/Textures/ikblue.wad
Opened WAD: ../../30th_static_fiend/Textures/hipnotic.wad
Opened WAD: ../../30th_static_fiend/Textures/knave.wad
Opened WAD: ../../30th_static_fiend/Textures/rogue.wad
Opened WAD: ../../30th_static_fiend/Textures/rubicon.wad
Opened WAD: ../../30th_static_fiend/Textures/utilsmall.wad
Processing hull 0...
---- Brush_LoadEntity ----
         2504 brushes
          108 detail
         1659 planes
---- CSGFaces ----
        15418 brushfaces
        12157 csgfaces
        10598 mergedfaces
---- SolidBSP ----
        12648 split nodes
         4866 solid leafs
         7406 empty leafs
          183 water leafs
          194 detail leafs
            0 detail illusionary leafs
            0 detail fence leafs
            0 illusionary visblocker leafs
        23257 leaffaces
        21115 nodefaces
---- Portalize ----
         7783 vis leafs
         7783 vis clusters
        24434 vis portals
---- FillOutside ----
         4021 outleafs
---- MergeAll ----
         6910 mergefaces
---- SolidBSP ----
         3621 split nodes
         1612 solid leafs
         1811 empty leafs
           65 water leafs
          134 detail leafs
            0 detail illusionary leafs
            0 detail fence leafs
            0 illusionary visblocker leafs
        10830 leaffaces
         8375 nodefaces
---- Portalize ----
         1876 vis leafs
         1676 vis clusters
         4951 vis portals
---- Tjunc ----
         7974 world edges
        27530 edge points
         6880 edges added by tjunctions
            0 faces added by tjunctions
---- MakeFaceEdges ----
---- GrowRegions ----
Processing hull 1...
Processing hull 2...
---- WriteBSPFile ----
Wrote ../../30th_static_fiend/mc_q30th_static_fiend.bsp
         2507 planes            50140
        10779 vertexes         129348
         4054 nodes             97296
         1212 texinfo           48480
         8176 faces            163520
         5927 clipnodes         47416
         2305 leafs             64540
        10536 marksurfaces      21072
        38994 surfedges        155976
        19500 edges             78000
          134 textures        1082340
              lightdata             0
              visdata               0
              entdata           35518

0.770 seconds elapsed
Peak memory usage: 84675572 (80.8M)
