---- qbsp / ericw-tools v0.18.1-32-g6660c5f ----
Input file: ../../30th_static_fiend/mc_q30th_static_fiend.map
Output file: ../../30th_static_fiend/mc_q30th_static_fiend.bsp

---- LoadMapFile ----
        15995 faces
         2707 brushes
          493 entities
          117 unique texnames
         2032 texinfo

Opened WAD: ../../30th_static_fiend/Textures/quake101.wad
Opened WAD: ../../30th_static_fiend/Textures/ikbase.wad
Opened WAD: ../../30th_static_fiend/Textures/ikblue.wad
Opened WAD: ../../30th_static_fiend/Textures/hipnotic.wad
Opened WAD: ../../30th_static_fiend/Textures/knave.wad
Opened WAD: ../../30th_static_fiend/Textures/rogue.wad
Opened WAD: ../../30th_static_fiend/Textures/rubicon.wad
Opened WAD: ../../30th_static_fiend/Textures/utilsmall.wad
Processing hull 0...
---- Brush_LoadEntity ----
         2501 brushes
          108 detail
         1659 planes
---- CSGFaces ----
        15400 brushfaces
        12146 csgfaces
        10586 mergedfaces
---- SolidBSP ----
        12656 split nodes
         4872 solid leafs
         7408 empty leafs
          183 water leafs
          194 detail leafs
            0 detail illusionary leafs
            0 detail fence leafs
            0 illusionary visblocker leafs
        23259 leaffaces
        21110 nodefaces
---- Portalize ----
         7785 vis leafs
         7785 vis clusters
        24444 vis portals
---- FillOutside ----
         4022 outleafs
---- MergeAll ----
         6898 mergefaces
---- SolidBSP ----
         3611 split nodes
         1603 solid leafs
         1810 empty leafs
           65 water leafs
          134 detail leafs
            0 detail illusionary leafs
            0 detail fence leafs
            0 illusionary visblocker leafs
        10818 leaffaces
         8363 nodefaces
---- Portalize ----
         1875 vis leafs
         1675 vis clusters
         4947 vis portals
---- Tjunc ----
         7963 world edges
        27490 edge points
         6876 edges added by tjunctions
            0 faces added by tjunctions
---- MakeFaceEdges ----
---- GrowRegions ----
Processing hull 1...
Processing hull 2...
---- WriteBSPFile ----
Wrote ../../30th_static_fiend/mc_q30th_static_fiend.bsp
         2507 planes            50140
        10765 vertexes         129180
         4044 nodes             97056
         1208 texinfo           48320
         8164 faces            163280
         6008 clipnodes         48064
         2304 leafs             64512
        10524 marksurfaces      21048
        38942 surfedges        155768
        19474 edges             77896
          134 textures        1082340
              lightdata             0
              visdata               0
              entdata           35529

0.759 seconds elapsed
Peak memory usage: 84751784 (80.8M)
